data_image0
_chemical_formula_structural       Al8H32C64O40
_chemical_formula_sum              "Al8 H32 C64 O40"
_cell_length_a       14.886237701479526
_cell_length_b       14.886237698740862
_cell_length_c       11.91127700991899
_cell_angle_alpha    89.99999999771404
_cell_angle_beta     90.00000000060548
_cell_angle_gamma    90.0000000571284

_space_group_name_H-M_alt    "P 1"
_space_group_IT_number       1

loop_
  _space_group_symop_operation_xyz
  'x, y, z'

loop_
  _atom_site_type_symbol
  _atom_site_label
  _atom_site_symmetry_multiplicity
  _atom_site_fract_x
  _atom_site_fract_y
  _atom_site_fract_z
  _atom_site_occupancy
  Al  Al1       1.0  0.30809441829010714  0.6919055869316737  0.5000000037684862  1.0000
  Al  Al2       1.0  0.19190558039477745  0.80809441343542  3.342026205053307e-09  1.0000
  Al  Al3       1.0  0.1919055742941063  0.6919055801516049  0.7499999968431936  1.0000
  Al  Al4       1.0  0.8080944240959597  0.30809441973259555  0.7499999976951663  1.0000
  Al  Al5       1.0  0.8080944186608396  0.19190558446066833  4.199010815923424e-09  1.0000
  Al  Al6       1.0  0.6919055821131725  0.30809441296158413  0.5000000037793518  1.0000
  Al  Al7       1.0  0.6919055739930774  0.19190558238292943  0.24999999727371838  1.0000
  Al  Al8       1.0  0.30809442640813256  0.8080944202064314  0.24999999557875963  1.0000
  H   H1        1.0  0.7490801263543647  0.314291010971474  0.12387479569873747  1.0000
  H   H2        1.0  0.2515315424914624  0.6858877080256615  0.12499096181364998  1.0000
  H   H3        1.0  0.8138631703248875  0.24990531326049392  0.37477819951886  1.0000
  H   H4        1.0  0.18706321988448324  0.750214875598332  0.3757403532626393  1.0000
  H   H5        1.0  0.9998403937229  0.9993720924756702  0.1104432356120812  1.0000
  H   H6        1.0  0.9993254175062717  0.49993076219973165  0.8607077887578672  1.0000
  H   H7        1.0  0.0005507775566733802  0.4996860870863253  0.6400868124715617  1.0000
  H   H8        1.0  0.9997661183705198  0.998759233083742  0.8903830737941046  1.0000
  H   H9        1.0  0.3724666531405585  0.5688706665212169  0.9214975147060972  1.0000
  H   H10       1.0  0.6288607337899013  0.43187575594570526  0.9201595163623498  1.0000
  H   H11       1.0  0.06790097893607566  0.6271295315935335  0.17111903265599918  1.0000
  H   H12       1.0  0.9316650848551273  0.3709094259640386  0.17310790880933555  1.0000
  H   H13       1.0  0.8724797988970989  0.4308181364193624  0.32913868011188513  1.0000
  H   H14       1.0  0.12799060022562916  0.5694063608180827  0.3280845998398321  1.0000
  H   H15       1.0  0.06881329442117719  0.8721082607195164  0.5788147685975965  1.0000
  H   H16       1.0  0.9312611842904256  0.12721054667039897  0.5793108014510336  1.0000
  H   H17       1.0  0.25016651851911836  0.8143720717186226  0.624915430009523  1.0000
  H   H18       1.0  0.7495072263065745  0.18597191169021465  0.6251905631720754  1.0000
  H   H19       1.0  0.3129160608645456  0.749663878140928  0.8755493171792534  1.0000
  H   H20       1.0  0.6854218542425327  0.2503188352179512  0.875536993347295  1.0000
  H   H21       1.0  0.5004124143643062  0.49955695449626547  0.6098265133909972  1.0000
  H   H22       1.0  0.5009009343026711  0.0003488846156572712  0.3599593398063909  1.0000
  H   H23       1.0  0.5015565571732363  0.9996209750848145  0.13884546750586324  1.0000
  H   H24       1.0  0.5002699995322912  0.4995498569769863  0.38799640325867396  1.0000
  H   H25       1.0  0.871270821283882  0.06856429523754029  0.42305509627863014  1.0000
  H   H26       1.0  0.1284195233017963  0.9318755779545558  0.42150130328559465  1.0000
  H   H27       1.0  0.568834445123904  0.12762588150225998  0.6710380989500218  1.0000
  H   H28       1.0  0.4312955024024539  0.8715345845460087  0.6706271285751092  1.0000
  H   H29       1.0  0.37308832443460815  0.9316038868793406  0.829513496282029  1.0000
  H   H30       1.0  0.6281133959378575  0.06781926430811151  0.8297223118665865  1.0000
  H   H31       1.0  0.5687563010920101  0.3720194913491657  0.0798411729450001  1.0000
  H   H32       1.0  0.43232387493998176  0.6279200640622652  0.07780917510537039  1.0000
  C   C1        1.0  0.35845203210157867  0.59278879600434  0.7018193240670288  1.0000
  C   C2        1.0  0.6415479756927481  0.4072112072404132  0.7018193391846695  1.0000
  C   C3        1.0  0.09278879543099376  0.6415479998172918  0.9518193750679746  1.0000
  C   C4        1.0  0.9072112056477888  0.35845199401374384  0.9518193876726789  1.0000
  C   C5        1.0  0.8584520420351531  0.40721119593138994  0.548180702583519  1.0000
  C   C6        1.0  0.14154795635324136  0.5927888046318841  0.548180707611927  1.0000
  C   C7        1.0  0.09278879285144492  0.8584520104468243  0.7981806393948991  1.0000
  C   C8        1.0  0.9072112088978268  0.1415480001838132  0.7981806201064194  1.0000
  C   C9        1.0  0.4307082926286363  0.5418786033272652  0.7607021197097482  1.0000
  C   C10       1.0  0.5692917091203253  0.45812139588478573  0.7607021197124888  1.0000
  C   C11       1.0  0.04187857984852262  0.5692916687085237  0.010701992720927575  1.0000
  C   C12       1.0  0.9581214185354214  0.4307083285154157  0.010701995248714548  1.0000
  C   C13       1.0  0.9307083214218032  0.4581214162227288  0.4892979715863958  1.0000
  C   C14       1.0  0.06929168234019512  0.5418785856862008  0.4892979682206202  1.0000
  C   C15       1.0  0.041878599512796585  0.9307082998737376  0.7392979083964855  1.0000
  C   C16       1.0  0.9581214002207035  0.06929169933908934  0.7392979084212414  1.0000
  C   C17       1.0  0.9999999986573099  6.681171888595294e-10  0.20117252314798584  1.0000
  C   C18       1.0  1.5967252759584332e-09  0.5000000020403459  0.9511726635554586  1.0000
  C   C19       1.0  0.9999999975644911  0.4999999993605887  0.548827374632269  1.0000
  C   C20       1.0  0.9999999993315456  0.9999999999855296  0.798827436560869  1.0000
  C   C21       1.0  0.4295157098977024  0.5393737548359895  0.8779547450023613  1.0000
  C   C22       1.0  0.5704842878216617  0.4606262463870982  0.8779547450050098  1.0000
  C   C23       1.0  0.03937375756020078  0.5704843024894081  0.12795485224526426  1.0000
  C   C24       1.0  0.960626245527044  0.42951570346318174  0.12795485141497423  1.0000
  C   C25       1.0  0.9295157024172797  0.4606262445599734  0.3720451733484143  1.0000
  C   C26       1.0  0.07048429193908796  0.5393737519791131  0.3720451741804658  1.0000
  C   C27       1.0  0.03937375572594969  0.9295157084113241  0.622045235250116  1.0000
  C   C28       1.0  0.9606262440065797  0.07048429147751194  0.6220452344353138  1.0000
  C   C29       1.0  2.017098306579236e-09  0.9999999986485398  0.4381677057509299  1.0000
  C   C30       1.0  0.9999999975629976  0.4999999966800765  0.18816764802003275  1.0000
  C   C31       1.0  3.609362531665083e-09  0.5000000027236889  0.3118323414675423  1.0000
  C   C32       1.0  2.326073676418894e-12  0.9999999999898225  0.5618323051698981  1.0000
  C   C33       1.0  0.8584520519533919  0.09278880293799427  0.2018192774832828  1.0000
  C   C34       1.0  0.14154795718031749  0.9072111996531125  0.20181929341215463  1.0000
  C   C35       1.0  0.5927887951299649  0.14154798794162687  0.4518193587076884  1.0000
  C   C36       1.0  0.407211204601155  0.8584520018769554  0.4518193738027046  1.0000
  C   C37       1.0  0.3584520396449966  0.907211195061703  0.048180701306652855  1.0000
  C   C38       1.0  0.641547980235623  0.09278879880207144  0.0481806618677216  1.0000
  C   C39       1.0  0.5927887844892789  0.3584519931970679  0.2981805953297749  1.0000
  C   C40       1.0  0.40721121456880716  0.6415480120775934  0.29818058944563414  1.0000
  C   C41       1.0  0.9307082903123228  0.04187860354330574  0.26070213021475924  1.0000
  C   C42       1.0  0.06929171143249832  0.9581213956868603  0.2607021293496498  1.0000
  C   C43       1.0  0.541878581566918  0.06929167226525615  0.5107019998745775  1.0000
  C   C44       1.0  0.4581214181646892  0.9307083282993756  0.5107019990158927  1.0000
  C   C45       1.0  0.43070832172283224  0.9581214160066887  0.9892979753535738  1.0000
  C   C46       1.0  0.5692916786844993  0.04187858386884225  0.9892979787324325  1.0000
  C   C47       1.0  0.5418785992117677  0.4307083027768234  0.23929791554333432  1.0000
  C   C48       1.0  0.45812139984583095  0.5692916998129252  0.239297913021159  1.0000
  C   C49       1.0  0.49999999885895  0.5000000002788654  0.7011725344777697  1.0000
  C   C50       1.0  0.49999999928041194  2.411020231354217e-10  0.45117265726965866  1.0000
  C   C51       1.0  0.49999999927874617  0.9999999995766291  0.04882736750692876  1.0000
  C   C52       1.0  0.5000000008725684  0.49999999827086955  0.2988274294139599  1.0000
  C   C53       1.0  0.9295157122837188  0.03937375438026819  0.3779547387165613  1.0000
  C   C54       1.0  0.0704842861032663  0.9606262468609343  0.37795473785135997  1.0000
  C   C55       1.0  0.5393737552480278  0.07048429865676493  0.6279548468058059  1.0000
  C   C56       1.0  0.46062624448455036  0.9295157012318569  0.6279548476262875  1.0000
  C   C57       1.0  0.4295157047335931  0.9606262456874562  0.8720451695597277  1.0000
  C   C58       1.0  0.5704842956727676  0.03937375419232268  0.8720451687410076  1.0000
  C   C59       1.0  0.5393737574402048  0.42951570459679606  0.12204523148293794  1.0000
  C   C60       1.0  0.4606262449752298  0.5704842912795867  0.12204523147936658  1.0000
  C   C61       1.0  0.5000000015469768  0.49999999893104957  0.9381677028085246  1.0000
  C   C62       1.0  0.49999999995315453  2.3680888454961476e-10  0.6881676501364394  1.0000
  C   C63       1.0  0.49999999995366656  2.345687118685992e-10  0.8118323435839488  1.0000
  C   C64       1.0  0.4999999981845416  0.5000000023057312  0.06183230641839463  1.0000
  O   O1        1.0  0.24999999329750552  0.7487229471439647  0.6249999973662225  1.0000
  O   O2        1.0  0.7500000044197637  0.25127705274476464  0.6249999965407816  1.0000
  O   O3        1.0  0.24872295269420888  0.7499999931180936  0.8750000013557042  1.0000
  O   O4        1.0  0.7512770477121763  0.2500000054180552  0.8750000005303358  1.0000
  O   O5        1.0  0.3764719935983273  0.6221787855378941  0.6044554302510801  1.0000
  O   O6        1.0  0.6235280034470108  0.3778212069622041  0.6044554218626104  1.0000
  O   O7        1.0  0.12217877754963113  0.6235279987139697  0.8544554199666655  1.0000
  O   O8        1.0  0.8778212194977769  0.37647200318173035  0.8544554124212227  1.0000
  O   O9        1.0  0.8764719920834604  0.3778212379885897  0.6455445342737103  1.0000
  O   O10       1.0  0.12352800832102444  0.6221787659299637  0.6455445283865804  1.0000
  O   O11       1.0  0.12217879850050478  0.8764720021747914  0.8955445861011995  1.0000
  O   O12       1.0  0.877821203249573  0.12352799770413604  0.8955445987156413  1.0000
  O   O13       1.0  0.28527610936337017  0.6049969874305543  0.7558259792271176  1.0000
  O   O14       1.0  0.7147238870114598  0.3950030171557648  0.7558259733577577  1.0000
  O   O15       1.0  0.10499698692498613  0.7147238675140599  0.005825971452684879  1.0000
  O   O16       1.0  0.8950030148177247  0.285276137771193  0.005825967269570124  1.0000
  O   O17       1.0  0.7852761018185289  0.39500300779101866  0.4941740037663353  1.0000
  O   O18       1.0  0.21472390059998714  0.6049969894154045  0.4941740037579599  1.0000
  O   O19       1.0  0.1049969809173627  0.7852761226275017  0.7441740371267689  1.0000
  O   O20       1.0  0.8950030174726548  0.21472386919577305  0.7441740396630219  1.0000
  O   O21       1.0  0.7499999943399992  0.24872294736000486  0.1249999994758283  1.0000
  O   O22       1.0  0.250000006731937  0.7512770525468394  0.12499999862207786  1.0000
  O   O23       1.0  0.7487229517214187  0.24999999467765682  0.3750000026257693  1.0000
  O   O24       1.0  0.2512770466655423  0.7500000065636528  0.3750000034511724  1.0000
  O   O25       1.0  0.8764719899384911  0.12217877500575168  0.10445546258414541  1.0000
  O   O26       1.0  0.12352800710270657  0.8778212121383697  0.10445545584644729  1.0000
  O   O27       1.0  0.6221787792638861  0.12352799893001011  0.3544554279530548  1.0000
  O   O28       1.0  0.37782122315347266  0.8764720009685206  0.35445541953976223  1.0000
  O   O29       1.0  0.37647198969330387  0.8778212431647557  0.14554453551546576  1.0000
  O   O30       1.0  0.6235280026459041  0.12217877487890211  0.1455445582010241  1.0000
  O   O31       1.0  0.6221788035735668  0.37647200507787737  0.39554461927380524  1.0000
  O   O32       1.0  0.3778211948135639  0.623527994819165  0.39554462094591036  1.0000
  O   O33       1.0  0.7852760949553513  0.10499698966187891  0.2558259914112098  1.0000
  O   O34       1.0  0.2147239007435768  0.8950030176296009  0.2558259829949189  1.0000
  O   O35       1.0  0.6049969866280971  0.21472387778840651  0.5058259760877132  1.0000
  O   O36       1.0  0.39500301175994673  0.7852761301657769  0.5058259735553697  1.0000
  O   O37       1.0  0.2852761068218876  0.8950030055596944  0.9941740033358107  1.0000
  O   O38       1.0  0.7147238808220173  0.10499698558276155  0.9941740184674746  1.0000
  O   O39       1.0  0.6049969812880952  0.28527613560700854  0.24417404511315838  1.0000
  O   O40       1.0  0.39500301978482805  0.7147238609367107  0.2441740476211018  1.0000
