data_image0
_chemical_formula_structural       Al8H32C64O40
_chemical_formula_sum              "Al8 H32 C64 O40"
_cell_length_a       14.887274282056785
_cell_length_b       14.887277811101034
_cell_length_c       11.901171266156181
_cell_angle_alpha    89.99996528476652
_cell_angle_beta     89.9999560814483
_cell_angle_gamma    90.00010662243594

_space_group_name_H-M_alt    "P 1"
_space_group_IT_number       1

loop_
  _space_group_symop_operation_xyz
  'x, y, z'

loop_
  _atom_site_type_symbol
  _atom_site_label
  _atom_site_symmetry_multiplicity
  _atom_site_fract_x
  _atom_site_fract_y
  _atom_site_fract_z
  _atom_site_occupancy
  Al  Al1       1.0  0.3097559204772858  0.6938769508752941  0.5019159267382077  1.0000
  Al  Al2       1.0  0.19032218487339161  0.8060517544553157  0.0019153596883969687  1.0000
  Al  Al3       1.0  0.19395392607360845  0.6902467452561639  0.7519169233369984  1.0000
  Al  Al4       1.0  0.8097567535418484  0.30604853607648913  0.7481277169361733  1.0000
  Al  Al5       1.0  0.8061260054923391  0.1902468170225144  0.9981274322844402  1.0000
  Al  Al6       1.0  0.6939538870252788  0.3096800529088458  0.49812800290573606  1.0000
  Al  Al7       1.0  0.690322461248445  0.1938787415189734  0.2481266118252262  1.0000
  Al  Al8       1.0  0.30612508500261154  0.8096818804218983  0.2519170144605633  1.0000
  H   H1        1.0  0.7728681385345931  0.3078136851428541  0.1359625062440592  1.0000
  H   H2        1.0  0.27285705896785023  0.6921134238396486  0.1140856787496072  1.0000
  H   H3        1.0  0.8078923895802554  0.22714349358183406  0.38595828776060487  1.0000
  H   H4        1.0  0.19218575487460662  0.7271476304076103  0.3640878889138154  1.0000
  H   H5        1.0  0.9983466655919164  0.0008556554364069768  0.10952498569825575  1.0000
  H   H6        1.0  0.9991503866628321  0.4982712368792835  0.8595265884218511  1.0000
  H   H7        1.0  0.001735086706055188  0.5008526713657776  0.6405179262913429  1.0000
  H   H8        1.0  0.0009263648727753093  0.9982681736868467  0.8905159247805643  1.0000
  H   H9        1.0  0.3738880941643185  0.5702761071062278  0.9204369460877307  1.0000
  H   H10       1.0  0.6294485391157327  0.43284410266841045  0.9223752615708131  1.0000
  H   H11       1.0  0.0703454070350926  0.6261224531672858  0.17043520246441218  1.0000
  H   H12       1.0  0.9329168950042689  0.3705594778922624  0.17237637969728392  1.0000
  H   H13       1.0  0.873885064975665  0.42964922398193156  0.3296108810023217  1.0000
  H   H14       1.0  0.12944010590284333  0.5670918987077461  0.3276658379659852  1.0000
  H   H15       1.0  0.06715845178292684  0.8705560618033044  0.577666037648147  1.0000
  H   H16       1.0  0.9297207477825611  0.12611328318013545  0.5796075343853965  1.0000
  H   H17       1.0  0.22722789363695262  0.8078187982465677  0.6140913552461439  1.0000
  H   H18       1.0  0.7272166881969158  0.19211120433938442  0.6359588817131736  1.0000
  H   H19       1.0  0.30789834022932355  0.772768900113107  0.8640954482375951  1.0000
  H   H20       1.0  0.6921865760847418  0.2727822554141394  0.8859560194613465  1.0000
  H   H21       1.0  0.5017341039051241  0.49907317793625333  0.6095264897568052  1.0000
  H   H22       1.0  0.5009320551776664  0.001654980084252253  0.3595264539416448  1.0000
  H   H23       1.0  0.49834395450777635  0.9990783616380511  0.1405181368590448  1.0000
  H   H24       1.0  0.49914822065701314  0.5016569316965442  0.39051814646333116  1.0000
  H   H25       1.0  0.8706290125357354  0.06708066628666526  0.42237332853646326  1.0000
  H   H26       1.0  0.12619187060850962  0.9296524782890623  0.42043478722731364  1.0000
  H   H27       1.0  0.5671632838712137  0.12936664057280894  0.672377027809582  1.0000
  H   H28       1.0  0.4297343147174223  0.8738042660194945  0.6704353395938047  1.0000
  H   H29       1.0  0.3706382256875353  0.9328368783200859  0.8276674098760145  1.0000
  H   H30       1.0  0.6261969182006787  0.07027336484881767  0.8296101112514586  1.0000
  H   H31       1.0  0.5703586010192279  0.37381337358964356  0.07961017332864671  1.0000
  H   H32       1.0  0.43291892010669725  0.6293699101000695  0.07766849333886905  1.0000
  C   C1        1.0  0.36005990502212537  0.5927174531031483  0.7014216951883755  1.0000
  C   C2        1.0  0.6427954407133656  0.4064615106711749  0.7022049977147579  1.0000
  C   C3        1.0  0.09279130552120181  0.6399463845262511  0.9514203615667766  1.0000
  C   C4        1.0  0.9065380976562104  0.35720856535243184  0.9522054178200711  1.0000
  C   C5        1.0  0.8600609896109301  0.40720699254538156  0.5486247065816092  1.0000
  C   C6        1.0  0.1427938816156634  0.5934665531781218  0.5478377114917002  1.0000
  C   C7        1.0  0.09354141329985234  0.8572084647552902  0.7978367754234199  1.0000
  C   C8        1.0  0.9072822481148867  0.1399410766063913  0.7986224877974933  1.0000
  C   C9        1.0  0.43243654446900215  0.5419966921407342  0.7601850968699047  1.0000
  C   C10       1.0  0.5708385835182116  0.4579805935646983  0.7609564519770897  1.0000
  C   C11       1.0  0.04206876719101132  0.5675711851761037  0.010184427138784709  1.0000
  C   C12       1.0  0.9580543568264648  0.4291676848238183  0.01095685516741949  1.0000
  C   C13       1.0  0.9324353873983512  0.45793023829733964  0.48986075251700756  1.0000
  C   C14       1.0  0.07083513827897399  0.5419500318429302  0.48908657066310895  1.0000
  C   C15       1.0  0.04202092901467439  0.9291644794026391  0.7390857459643753  1.0000
  C   C16       1.0  0.9580016882904259  0.06756449074788246  0.7398578917387674  1.0000
  C   C17       1.0  0.9984363771995988  0.0002424095323903398  0.2009675444118685  1.0000
  C   C18       1.0  0.9997598464441008  0.4983629290401418  0.9509691612421464  1.0000
  C   C19       1.0  0.0016423557766542807  0.5002416920393478  0.5490753334213975  1.0000
  C   C20       1.0  0.00031387640245394977  0.9983585130582585  0.7990733733977087  1.0000
  C   C21       1.0  0.43118718743442597  0.5403245669333779  0.8775420456359749  1.0000
  C   C22       1.0  0.5720300757447714  0.4614264557843957  0.8782767100210886  1.0000
  C   C23       1.0  0.0403946107115082  0.568822576771711  0.1275411307986452  1.0000
  C   C24       1.0  0.9614980553654389  0.4279784248681647  0.12827727721550997  1.0000
  C   C25       1.0  0.9311834297563021  0.4596037635423047  0.37250400128595845  1.0000
  C   C26       1.0  0.07202353265395514  0.5385071683819861  0.3717661103411295  1.0000
  C   C27       1.0  0.0385748679558585  0.9279734515139251  0.6217654193427632  1.0000
  C   C28       1.0  0.9596732472651931  0.06881426088183049  0.6225011788772797  1.0000
  C   C29       1.0  0.9984952700021774  0.9987262727191337  0.4381557320454322  1.0000
  C   C30       1.0  0.0012700036415871363  0.4984268182623105  0.1881573513459269  1.0000
  C   C31       1.0  0.0015765237314671926  0.49873211755626295  0.31188685316321846  1.0000
  C   C32       1.0  0.9987996599592763  0.9984196881727581  0.5618851156741619  1.0000
  C   C33       1.0  0.8572829453125271  0.09346457605847187  0.20220413755004435  1.0000
  C   C34       1.0  0.1400195224376311  0.907211446172986  0.20141975007801702  1.0000
  C   C35       1.0  0.5935429343517845  0.14271764524550137  0.45220539799229104  1.0000
  C   C36       1.0  0.40728730725131  0.8599816549944659  0.45142034163621036  1.0000
  C   C37       1.0  0.35728482516611115  0.906461815024796  0.04783796439818365  1.0000
  C   C38       1.0  0.6400184018096835  0.09272014252296713  0.04862412065612185  1.0000
  C   C39       1.0  0.5927964239499514  0.3599856111613765  0.2986242267953324  1.0000
  C   C40       1.0  0.40653620060501733  0.6427186167151848  0.2978374690958356  1.0000
  C   C41       1.0  0.9292403578651794  0.0419463690085652  0.260955014525171  1.0000
  C   C42       1.0  0.06764318072725273  0.9579320906982411  0.26018344873277455  1.0000
  C   C43       1.0  0.5420273654991627  0.0707581008415725  0.510957129369455  1.0000
  C   C44       1.0  0.45801162975866305  0.9323555061311095  0.5101843108215363  1.0000
  C   C45       1.0  0.4292436771109162  0.9579785516524528  0.9890872051990343  1.0000
  C   C46       1.0  0.5676442565405581  0.04199677726245682  0.9898602992170001  1.0000
  C   C47       1.0  0.5420752662501491  0.4323614674622659  0.2398603613549832  1.0000
  C   C48       1.0  0.45805575081618527  0.5707613473752364  0.23908753149629827  1.0000
  C   C49       1.0  0.501643310010884  0.49968594409975764  0.700969103046763  1.0000
  C   C50       1.0  0.5003216000113285  0.0015632625366044954  0.4509691233420464  1.0000
  C   C51       1.0  0.49843662487695684  0.9996868673016778  0.049075512379086556  1.0000
  C   C52       1.0  0.49976229187975185  0.5015671402656454  0.29907561314050984  1.0000
  C   C53       1.0  0.9280482129789068  0.038499486456091594  0.3782750472943303  1.0000
  C   C54       1.0  0.0688923580651584  0.9596035275684189  0.3775403308112668  1.0000
  C   C55       1.0  0.538582551271771  0.0719477357223639  0.6282775563834896  1.0000
  C   C56       1.0  0.45968585897117464  0.9311037688834749  0.627541160564817  1.0000
  C   C57       1.0  0.4280555957640106  0.9614207140317386  0.8717667597896184  1.0000
  C   C58       1.0  0.5688972037641391  0.04032156539607028  0.8725036652647139  1.0000
  C   C59       1.0  0.5404045323487991  0.4311118056357365  0.12250352253318275  1.0000
  C   C60       1.0  0.46150247718747794  0.5719523174090814  0.12176741394283577  1.0000
  C   C61       1.0  0.5015833582545706  0.5012003270655226  0.938157618784045  1.0000
  C   C62       1.0  0.498810282492259  0.0014994061678141898  0.688157594834332  1.0000
  C   C63       1.0  0.498503255497811  0.0011944286416458651  0.8118870982307882  1.0000
  C   C64       1.0  0.5012782903471094  0.5015063832194262  0.06188719761455586  1.0000
  O   O1        1.0  0.2543515959651656  0.7500357817351113  0.6302986564110756  1.0000
  O   O2        1.0  0.754349016604293  0.24988944681434352  0.619746546650608  1.0000
  O   O3        1.0  0.25011168911032666  0.745651798999648  0.8802999358870555  1.0000
  O   O4        1.0  0.749966357229516  0.24565269162806572  0.8697457102920837  1.0000
  O   O5        1.0  0.37844290594610214  0.6241090917426131  0.6049755224283793  1.0000
  O   O6        1.0  0.6250033752191754  0.3780130433688558  0.6043526818558781  1.0000
  O   O7        1.0  0.12418541502460244  0.6215605770208114  0.8549763227762922  1.0000
  O   O8        1.0  0.878090667524886  0.3749989826735953  0.8543521829672933  1.0000
  O   O9        1.0  0.878446775070329  0.37581200600099346  0.6450682782920732  1.0000
  O   O10       1.0  0.1250045664634032  0.6219123906867162  0.6456920387214132  1.0000
  O   O11       1.0  0.12198980970615948  0.875000743540752  0.8956891955149453  1.0000
  O   O12       1.0  0.8758891091372227  0.12155635969182163  0.8950674239407519  1.0000
  O   O13       1.0  0.28626556148193644  0.6029842424613998  0.7544593465562239  1.0000
  O   O14       1.0  0.7155557028345975  0.39284651341344295  0.7569421986047891  1.0000
  O   O15       1.0  0.10305762876689847  0.7137419337027275  0.004455196480287268  1.0000
  O   O16       1.0  0.8929241380162939  0.2844481669972302  0.006942997409631035  1.0000
  O   O17       1.0  0.7862654091947678  0.39694189390300766  0.49558974702068687  1.0000
  O   O18       1.0  0.21555313195623188  0.6070816471761633  0.49309840850167963  1.0000
  O   O19       1.0  0.10715758346152637  0.7844489200025291  0.7430987419141842  1.0000
  O   O20       1.0  0.8970183930238135  0.21373700629010428  0.7455877744401554  1.0000
  O   O21       1.0  0.7457310805558737  0.25003826330769  0.11974674146717723  1.0000
  O   O22       1.0  0.24572740143768734  0.7498927329065365  0.1302983156540547  1.0000
  O   O23       1.0  0.7501136931449077  0.2542744098745013  0.36974540990555255  1.0000
  O   O24       1.0  0.24996620405737832  0.7542756783888899  0.3802989014378284  1.0000
  O   O25       1.0  0.8750751811638827  0.12191327680004009  0.10435189985501758  1.0000
  O   O26       1.0  0.12163570021638345  0.8758188796301578  0.10497437764528238  1.0000
  O   O27       1.0  0.6219893403550364  0.12492775950826415  0.3543514558593879  1.0000
  O   O28       1.0  0.37589194703206713  0.8783685846339557  0.3549772063696463  1.0000
  O   O29       1.0  0.37507471643035556  0.878015285203643  0.14569191468361306  1.0000
  O   O30       1.0  0.6216319393839951  0.12411599764573616  0.14506706274582937  1.0000
  O   O31       1.0  0.6241904051207848  0.37837018374119497  0.3950686148029866  1.0000
  O   O32       1.0  0.3780882518426783  0.6249272248170136  0.39569033900773826  1.0000
  O   O33       1.0  0.784522515516784  0.10707913806491665  0.2569412116697519  1.0000
  O   O34       1.0  0.2138140623942057  0.89694480600978  0.2544565639989217  1.0000
  O   O35       1.0  0.6071568843340674  0.21547770365309926  0.5069434670642414  1.0000
  O   O36       1.0  0.3970209657358833  0.7861859627243544  0.5044550348988082  1.0000
  O   O37       1.0  0.284525412069717  0.8928472345805842  0.9930990806187898  1.0000
  O   O38       1.0  0.7138143645471857  0.10298512370719126  0.9955899381885688  1.0000
  O   O39       1.0  0.6030612677796542  0.286190280929128  0.24558864493627858  1.0000
  O   O40       1.0  0.3929208831717428  0.7154782727849246  0.24309899155339845  1.0000
